Version 4
SHEET 1 1604 816
WIRE 624 -208 624 -240
WIRE -64 -112 -64 -144
WIRE 624 -96 624 -128
WIRE 736 -96 624 -96
WIRE 624 -48 624 -96
WIRE 704 -48 688 -48
WIRE 736 -48 704 -48
WIRE 1072 0 1072 -16
WIRE 1072 0 960 0
WIRE 1232 0 1184 0
WIRE 704 16 704 -48
WIRE 736 16 704 16
WIRE 1072 16 1072 0
WIRE 736 48 656 48
WIRE 704 80 704 16
WIRE 736 128 576 128
WIRE 48 176 -64 176
WIRE -64 208 -64 176
WIRE 1232 240 1232 0
WIRE 1280 240 1232 240
WIRE 1488 256 1392 256
WIRE 1280 272 1232 272
WIRE 624 288 624 256
WIRE 48 336 -64 336
WIRE -64 368 -64 336
WIRE 624 400 624 368
WIRE 736 400 624 400
WIRE 624 448 624 400
WIRE 704 448 688 448
WIRE 736 448 704 448
WIRE 48 496 -64 496
WIRE 1104 496 960 496
WIRE 704 512 704 448
WIRE 736 512 704 512
WIRE 1232 512 1232 272
WIRE 1232 512 1216 512
WIRE -64 528 -64 496
WIRE 1104 528 1072 528
WIRE 736 544 656 544
WIRE 704 576 704 512
WIRE 736 624 656 624
WIRE 448 672 448 656
WIRE 448 672 416 672
WIRE 576 672 576 128
WIRE 576 672 560 672
WIRE 656 672 656 624
WIRE 656 672 576 672
WIRE 448 688 448 672
WIRE 1072 736 1072 528
WIRE 1072 736 944 736
FLAG -64 -32 0
FLAG -64 288 0
FLAG -64 448 0
FLAG -64 -144 5V
FLAG 624 -240 5V
FLAG 624 256 5V
FLAG 704 80 0
FLAG 704 576 0
FLAG 48 176 CLK
FLAG 48 336 DATA
FLAG 656 48 CLK
FLAG 656 544 CLK
FLAG -64 608 0
FLAG 48 496 CS
FLAG 416 672 CS
FLAG 1488 256 WS2812
FLAG 944 736 DATA
SYMBOL voltage -64 -128 R0
SYMATTR InstName V1
SYMATTR Value 3.3V
SYMBOL voltage -64 192 R0
WINDOW 123 0 0 Left 0
WINDOW 39 0 0 Left 0
SYMATTR InstName V2
SYMATTR Value PULSE(0 3.3V 0 10n 10n {1/(freq*2)} {1/freq})
SYMBOL voltage -64 352 R0
WINDOW 123 0 0 Left 0
WINDOW 39 0 0 Left 0
SYMATTR InstName V3
SYMATTR Value PULSE(0 3.3V 0 10n 10n 1.25u 2.5u)
SYMBOL 74HC\\74hc123 848 336 R0
SYMATTR InstName U1
SYMBOL 74HC\\74hc123 848 -160 R0
SYMATTR InstName U2
SYMBOL res 608 -224 R0
SYMATTR InstName R1
SYMATTR Value 1.6k
SYMBOL cap 688 -64 R90
WINDOW 0 0 32 VBottom 2
WINDOW 3 32 32 VTop 2
SYMATTR InstName C1
SYMATTR Value 220p
SYMBOL res 608 272 R0
SYMATTR InstName R2
SYMATTR Value 3.3k
SYMBOL cap 688 432 R90
WINDOW 0 0 32 VBottom 2
WINDOW 3 32 32 VTop 2
SYMATTR InstName C2
SYMATTR Value 220p
SYMBOL 74HC\\74hc00 496 608 R0
SYMATTR InstName U3
SYMBOL 74HC\\74hc00 1120 -64 R0
SYMATTR InstName U4
SYMBOL 74HC\\74hc00 1328 192 R0
SYMATTR InstName U5
SYMBOL 74HC\\74hc00 1152 448 R0
SYMATTR InstName U6
SYMBOL voltage -64 512 R0
WINDOW 123 0 0 Left 0
WINDOW 39 0 0 Left 0
SYMATTR InstName V4
SYMATTR Value 0V
TEXT -72 48 Left 2 !.lib 74HC.lib
TEXT -72 72 Left 2 !.param freq=800k bits=8 bytes=2
TEXT -72 104 Left 2 !.tran 10u
